Program Version,EnergyPlus, Version 8.7.0-78a111df4a, YMD=2018.02.06 13:58,IDD_Version 8.7.0
   ** Severe  ** IP: Potential errors in IDF processing -- see .audit file for details.
   ** Warning ** Timestep: Requested number (1) is less than the suggested minimum of 4.
   **   ~~~   ** Please see entry for Timestep in Input/Output Reference for discussion of considerations.
   ************* Beginning Zone Sizing Calculations
   ** Warning ** ProcessScheduleInput: DecodeHHMMField, Invalid "until" field value is not a multiple of the minutes for each timestep: 22:05
   **   ~~~   ** Other errors may result. Occurred in Day Schedule=10009
   ** Warning ** Weather file location will be used rather than entered (IDF) Location object.
   **   ~~~   ** ..Location object=SANTA MARIA
   **   ~~~   ** ..Weather File Location=SANTA_MARIA - BRA SWERA WMO#=839360
   **   ~~~   ** ..due to location differences, Latitude difference=[2.30] degrees, Longitude difference=[1.70] degrees.
   **   ~~~   ** ..Time Zone difference=[0.0] hour(s), Elevation difference=[1040.00] percent, [104.00] meters.
   ** Warning ** GetSurfaceData: Construction WOODEN FLUSH PANEL HOLLOW CORE DOOR (NORMALLY HUNG) of interzone surface BLOCK1:ZONE4_PARTITION_4_0_0_0_0_0_DOOR does not have the same materials in the reverse order as the construction WOODEN FLUSH PANEL HOLLOW CORE DOOR (NORMALLY HUNG)_REV of adjacent surface BLOCK1:ZONE2_PARTITION_4_0_0_0_0_0_DOOR_10027
   **   ~~~   ** ...but Nominal U values are similar, diff=[0.0000] ... simulation proceeds.
   **   ~~~   ** ...if the two zones are expected to have significantly different temperatures, the proper "reverse" construction should be created.
   **   ~~~   ** ...this problem for this pair will not be reported again.
   ** Warning ** GetSurfaceData: Entered Zone Floor Areas differ from calculated Zone Floor Area(s).
   **   ~~~   ** ...use Output:Diagnostics,DisplayExtraWarnings; to show more details on individual zones.
   ** Warning ** CheckUsedConstructions: There are 14 nominally unused constructions in input.
   **   ~~~   ** For explicit details on each unused construction, use Output:Diagnostics,DisplayExtraWarnings;
   ** Warning ** DetermineShadowingCombinations: There are 5 surfaces which are receiving surfaces and are non-convex.
   **   ~~~   ** ...Shadowing values may be inaccurate. Check .shd report file for more surface shading details
   **   ~~~   ** ...Add Output:Diagnostics,DisplayExtraWarnings; to see individual warnings for each surface.
   ** Severe  ** DetermineShadowingCombinations: There are 4 surfaces which are casting surfaces and are non-convex.
   **   ~~~   ** ...Shadowing values may be inaccurate. Check .shd report file for more surface shading details
   **   ~~~   ** ...Add Output:Diagnostics,DisplayExtraWarnings; to see individual severes for each surface.
   ** Warning ** Calculated design heating load for zone=BLOCK1:ZONE3 is zero.
   **   ~~~   ** Check Sizing:Zone and ZoneControl:Thermostat inputs.
   ** Severe  ** UpdateZoneSizing: Cooling supply air temperature (calculated) within 2C of zone temperature
   **   ~~~   ** ...check zone thermostat set point and design supply air temperatures
   **   ~~~   ** ...zone name = BLOCK1:ZONE3
   **   ~~~   ** ...design sensible cooling load = 21148.47 W
   **   ~~~   ** ...thermostat set point temp    = 0.000 C
   **   ~~~   ** ...zone temperature             = 13.064 C
   **   ~~~   ** ...supply air temperature       = 12.800 C
   **   ~~~   ** ...temperature difference       = -0.26390 C
   **   ~~~   ** ...calculated volume flow rate  = 142842.67527 m3/s
   **   ~~~   ** ...calculated mass flow rate    = 169714.26388 kg/s
   ************* Beginning System Sizing Calculations
   ** Warning ** ManageSizing: Calculated Heating Design Air Flow Rate for System=BLOCK1:ZONE3 AHU is zero.
   **   ~~~   ** Check Sizing:Zone and ZoneControl:Thermostat inputs.
   ************* Testing Individual Branch Integrity
   ************* All Branches passed integrity testing
   ************* Testing Individual Supply Air Path Integrity
   ************* All Supply Air Paths passed integrity testing
   ************* Testing Individual Return Air Path Integrity
   ************* All Return Air Paths passed integrity testing
   ************* No node connection errors were found.
   ************* Beginning Simulation
   ** Warning ** More than 4% of time (350.4 hours) uncomfortable in one or more zones 
   **   ~~~   ** Based on ASHRAE 55-2004 graph (Section 5.2.1.1)
   **   ~~~   ** During Environment [01/01 - 12/31]: SANTA MARIA
   **   ~~~   ** 2904.0 hours were uncomfortable in zone: BLOCK1:ZONE3
   **   ~~~   ** 2233.0 hours were uncomfortable in zone: BLOCK1:ZONE7
   **   ~~~   ** 2780.0 hours were uncomfortable in zone: BLOCK1:ZONE6
   ************* Simulation Error Summary *************
   ************* There are 1 unused objects in input.
   ************* Use Output:Diagnostics,DisplayUnusedObjects; to see them.
   ************* There are 6 unused schedules in input.
   ************* There are 17 unused week schedules in input.
   ************* There are 8 unused day schedules in input.
   ************* Use Output:Diagnostics,DisplayUnusedSchedules; to see them.
   *************
   ************* ===== Recurring Surface Error Summary =====
   ************* The following surface error messages occurred.
   *************
   ************* Base Surface does not surround subsurface errors occuring...
   ************* Check that the GlobalGeometryRules object is expressing the proper starting corner and direction [CounterClockwise/Clockwise]
   *************
   ** Warning ** Base surface does not surround subsurface (CHKSBS), Overlap Status=No-Overlap
   **   ~~~   **   The base surround errors occurred 1 times.
   **   ~~~   ** Surface "BLOCK5:ZONE1_WALL_2_1_0" misses SubSurface "BLOCK5:ZONE1_WALL_2_1_0_1_0_1_VENT"
   ** Warning ** Base surface does not surround subsurface (CHKSBS), Overlap Status=Partial-Overlap
   **   ~~~   **   The base surround errors occurred 1 times.
   **   ~~~   ** Surface "BLOCK5:ZONE1_WALL_10_1_0" overlaps SubSurface "BLOCK5:ZONE1_WALL_10_1_0_1_0_1_VENT"
   *************
   **   ~~~   **   The base surround errors occurred 2 times (total).
   *************
   *************
   ************* ===== Final Error Summary =====
   ************* The following error categories occurred.  Consider correcting or noting.
   ************* Nominally Unused Constructions
   ************* ..The nominally unused constructions warning is provided to alert you to potential conditions that can cause
   ************* ..extra time during simulation. Each construction is calculated by the algorithm indicated in the HeatBalanceAlgorithm
   ************* ..object. You may remove the constructions indicated (when you use the DisplayExtraWarnings option).
   *************
   ************* EnergyPlus Warmup Error Summary. During Warmup: 0 Warning; 0 Severe Errors.
   ************* EnergyPlus Sizing Error Summary. During Sizing: 7 Warning; 1 Severe Errors.
   ************* EnergyPlus Completed Successfully-- 16 Warning; 6 Severe Errors; Elapsed Time=00hr 07min 25.15sec
